*SRC=S8050 ;S8050 ;BJTs NPN; Si;  25.0V  1.50A  200MHz   Fairchild 
.MODEL S8050   NPN (IS=43.2f NF=1.00 BF=234 VAF=90.0
+ IKF=0.791 ISE=11.4p NE=2.00 BR=4.00 NR=1.00
+ VAR=24.0 IKR=1.50 RE=0.206 RB=0.826 RC=82.6m
+ XTB=1.5 CJE=80.6p VJE=1.10 MJE=0.500 CJC=26.0p VJC=0.300
+ MJC=0.300 TF=739p TR=125n EG=1.12 )

.MODEL S8550 PNP (is=117.63f bf=178.2 vaf=51.25 ikf=3.303 ise=18.82f 
+ ne=1.5 br=5 var=36.68 ikr=0.01 isc=0.2f nc=1.5 rb=122 irb=83.22u 
+ rbm=27.07 rc=1 cje=99.51p Vceo=25 Icrating=1.5 mfg=Fairchild)
 
*SRC=S8550;S8550;BJTs PNP; Si;  25.0V  1.50A  200MHz   Fairchild 
* .MODEL S8550 PNP (IS=15.7f NF=1.00 BF=217 VAF=90.0
* + IKF=0.475 ISE=5.74p NE=2.00 BR=4.00 NR=1.00
* + VAR=24.0 IKR=0.900 RE=0.181 RB=0.726 RC=72.6m
* + XTB=1.5 CJE=134p VJE=1.10 MJE=0.500 CJC=43.3p VJC=0.300
* + MJC=0.300 TF=744p TR=125n EG=1.12 )